feeders/Simple Market System Test Alteration/main.glm
clock {
timezone PST+8PDT;
stoptime '2000-01-10 00:00:00';
starttime '2000-01-01 00:00:00';
};

#include "HVAC_schedule.glm";
#include "water_schedule.glm";
#include "appliance_schedule.glm";
#set minimum_timestep=60;
#set profiler=1;
#set relax_naming_rules=1;
module tape;
module climate;
module residential {
implicit_enduses NONE;
};

module powerflow {
solver_method FBS;
NR_iteration_limit 50;
};

module market;
object stubauction {
name Market_1;
period 300;
};

object player {
parent Market_1;
property current_market.clearing_price;
file Price.player;
loop 365;
};

object node {
phases ABCN;
name n650;
bustype SWING;
voltage_B -1200.8886-2080.000j;
voltage_C -1200.8886+2080.000j;
voltage_A 2401.7771;
nominal_voltage 2401.7771;
};

object regulator {
phases ABC;
from n650;
name Reg1;
to n630;
configuration regulator_configuration_6506321;
};

object node {
phases ABCN;
name n630;
voltage_B -1200.8886-2080.000j;
voltage_C -1200.8886+2080.000j;
voltage_A 2401.7771;
nominal_voltage 2401.7771;
};

object transformer {
phases AS;
from n630;
name T1;
to tn_1;
configuration tconf;
groupid Distribution_Trans;
};

object node {
phases ABCN;
nominal_voltage 2401.7771;
name node25;
};

object node {
phases ABCN;
nominal_voltage 2401.7771;
name node26;
};

object triplex_node {
phases AS;
nominal_voltage 120;
name tn_1;
};

object triplex_meter {
phases BS;
nominal_voltage 120;
name tn_2;
};

object triplex_line {
phases AS;
from tn_1;
name tl_1;
to tm_1;
length 100;
configuration trip_line_config;
};

object triplex_line {
phases BS;
from tn_2;
name t2;
to tm_2;
length 100;
configuration trip_line_config;
};

object triplex_meter {
phases AS;
nominal_voltage 120;
name tm_1;
};

object triplex_meter {
phases BS;
nominal_voltage 120;
name tm_2;
};

